media/examples/OpenDSS/IEEE30/Lines.dss
! Line definitions

! Note, the line data are given in pu. However, the OpenDSS works in Ohms
! The per unit values are converted to ohms using 100 MVA base and the voltage base of the first bus
! No capacitance was defined for the 33 and 11 kv lines.

New line.1-2   Bus1=B1  Bus2=B2  R1=3.345408  X1=10.0188   R0=10.036224 X0=30.0564    C1=803.793907242183 C0=267.931302414061 Length=1 
New line.1-3   Bus1=B1  Bus2=B3  R1=7.875648  X1=28.784448 R0=23.626944 X0=86.353344  C1=621.113473778051 C0=207.037824592684 Length=1 
New line.2-4   Bus1=B2  Bus2=B4  R1=9.93168   X1=30.265488 R0=29.79504  X0=90.796464  C1=560.219995956673 C0=186.739998652224 Length=1 
New line.3-4   Bus1=B3  Bus2=B4  R1=2.299968  X1=6.603696  R0=6.899904  X0=19.811088  C1=127.876303424893 C0=42.6254344749642 Length=1 
New line.2-5   Bus1=B2  Bus2=B5  R1=8.224128  X1=34.551792 R0=24.672384 X0=103.655376 C1=636.336843233395 C0=212.112281077798 Length=1 
New line.2-6   Bus1=B2  Bus2=B6  R1=10.123344 X1=30.718512 R0=30.370032 X0=92.155536  C1=569.35401762988  C0=189.784672543293 Length=1 
New line.4-6   Bus1=B4  Bus2=B6  R1=2.073456  X1=7.213536  R0=6.220368  X0=21.640608  C1=137.010325098099 C0=45.6701083660331 Length=1 
New line.5-7   Bus1=B5  Bus2=B7  R1=8.01504   X1=20.21184  R0=24.04512  X0=60.63552   C1=310.556736889025 C0=103.518912296342 Length=1 
New line.6-7   Bus1=B6  Bus2=B7  R1=4.652208  X1=14.28768  R0=13.956624 X0=42.86304   C1=258.797280740854 C0=86.2657602469515 Length=1 
New line.6-8   Bus1=B6  Bus2=B8  R1=2.09088   X1=7.31808   R0=6.27264   X0=21.95424   C1=137.010325098099 C0=45.6701083660331 Length=1 
New line.12-14 Bus1=B12 Bus2=B14 R1=1.340559  X1=2.786751  R0=4.021677  X0=8.360253   C1=0                C0=0                Length=1 
New line.12-15 Bus1=B12 Bus2=B15 R1=0.720918  X1=1.420056  R0=2.162754  X0=4.260168   C1=0                C0=0                Length=1 
New line.12-16 Bus1=B12 Bus2=B16 R1=1.029105  X1=2.163843  R0=3.087315  X0=6.491529   C1=0                C0=0                Length=1 
New line.14-15 Bus1=B14 Bus2=B15 R1=2.40669   X1=2.174733  R0=7.22007   X0=6.524199   C1=0                C0=0                Length=1 
New line.16-17 Bus1=B16 Bus2=B17 R1=0.570636  X1=2.094147  R0=1.711908  X0=6.282441   C1=0                C0=0                Length=1 
New line.15-18 Bus1=B15 Bus2=B18 R1=1.168497  X1=2.379465  R0=3.505491  X0=7.138395   C1=0                C0=0                Length=1 
New line.18-19 Bus1=B18 Bus2=B19 R1=0.695871  X1=1.406988  R0=2.087613  X0=4.220964   C1=0                C0=0                Length=1 
New line.19-20 Bus1=B19 Bus2=B20 R1=0.37026   X1=0.74052   R0=1.11078   X0=2.22156    C1=0                C0=0                Length=1 
New line.10-20 Bus1=B10 Bus2=B20 R1=1.019304  X1=2.27601   R0=3.057912  X0=6.82803    C1=0                C0=0                Length=1 
New line.10-17 Bus1=B10 Bus2=B17 R1=0.352836  X1=0.920205  R0=1.058508  X0=2.760615   C1=0                C0=0                Length=1 
New line.10-21 Bus1=B10 Bus2=B21 R1=0.378972  X1=0.815661  R0=1.136916  X0=2.446983   C1=0                C0=0                Length=1 
New line.10-22 Bus1=B10 Bus2=B22 R1=0.791703  X1=1.632411  R0=2.375109  X0=4.897233   C1=0                C0=0                Length=1 
New line.21-22 Bus1=B21 Bus2=B22 R1=0.126324  X1=0.257004  R0=0.378972  X0=0.771012   C1=0                C0=0                Length=1 
New line.15-23 Bus1=B15 Bus2=B23 R1=1.089     X1=2.19978   R0=3.267     X0=6.59934    C1=0                C0=0                Length=1 
New line.22-24 Bus1=B22 Bus2=B24 R1=1.25235   X1=1.94931   R0=3.75705   X0=5.84793    C1=0                C0=0                Length=1 
New line.23-24 Bus1=B23 Bus2=B24 R1=1.43748   X1=2.9403    R0=4.31244   X0=8.8209     C1=0                C0=0                Length=1 
New line.24-25 Bus1=B24 Bus2=B25 R1=2.052765  X1=3.584988  R0=6.158295  X0=10.754964  C1=0                C0=0                Length=1 
New line.25-26 Bus1=B25 Bus2=B26 R1=2.770416  X1=4.1382    R0=8.311248  X0=12.4146    C1=0                C0=0                Length=1 
New line.25-27 Bus1=B25 Bus2=B27 R1=1.190277  X1=2.272743  R0=3.570831  X0=6.818229   C1=0                C0=0                Length=1 
New line.27-29 Bus1=B27 Bus2=B29 R1=2.393622  X1=4.522617  R0=7.180866  X0=13.567851  C1=0                C0=0                Length=1 
New line.27-30 Bus1=B27 Bus2=B30 R1=3.486978  X1=6.563403  R0=10.460934 X0=19.690209  C1=0                C0=0                Length=1 
New line.29-30 Bus1=B29 Bus2=B30 R1=2.612511  X1=4.936437  R0=7.837533  X0=14.809311  C1=0                C0=0                Length=1 
New line.8-28  Bus1=B8  Bus2=B28 R1=11.081664 X1=34.848    R0=33.244992 X0=104.544    C1=651.560212688739 C0=217.186737562913 Length=1 
New line.6-28  Bus1=B6  Bus2=B28 R1=2.944656  X1=10.436976 R0=8.833968  X0=31.310928  C1=197.903802919477 C0=65.9679343064923 Length=1 