media/examples/OpenDSS/IEEE30/IEEE_30_Power_seq_kVA.txt

SYMMETRICAL COMPONENT POWERS BY CIRCUIT ELEMENT (first 3 phases)                                     Excess Power

Element Term    P1(kW)   Q1(kvar)       P2         Q2      P0      Q0       P_Norm      Q_Norm     P_Emerg    Q_Emerg

"Vsource.source"  1  -260982.0    16351.0        0.0        0.0     0.0     0.0
"Vsource.source"  2        0.0        0.0        0.0        0.0     0.0     0.0
"Line.1-2"  1   172932.0   -21169.0        0.0        0.0     0.0     0.0    76711.7    -9390.4    28601.5    -3501.2
"Line.1-2"  2  -167765.1    30804.4        0.0        0.0     0.0     0.0
"Line.1-3"  1    88050.0     4818.0        0.0        0.0     0.0     0.0        0.0        0.0        0.0        0.0
"Line.1-3"  2   -84910.8     2239.9        0.0        0.0     0.0     0.0
"Line.2-4"  1    44118.3     4153.9        0.0        0.0     0.0     0.0        0.0        0.0        0.0        0.0
"Line.2-4"  2   -43078.7    -4869.0        0.0        0.0     0.0     0.0
"Line.3-4"  1    82510.8    -3439.9        0.0        0.0     0.0     0.0        0.0        0.0        0.0        0.0
"Line.3-4"  2   -81646.3     5055.6        0.0        0.0     0.0     0.0
"Line.2-5"  1    82158.4     1649.8        0.0        0.0     0.0     0.0        0.0        0.0        0.0        0.0
"Line.2-5"  2   -79223.4     6273.8        0.0        0.0     0.0     0.0
"Line.2-6"  1    59788.4      691.6        0.0        0.0     0.0     0.0        0.0        0.0        0.0        0.0
"Line.2-6"  2   -57875.5     1170.5        0.0        0.0     0.0     0.0
"Line.4-6"  1    67764.3   -16271.8        0.0        0.0     0.0     0.0        0.0        0.0        0.0        0.0
"Line.4-6"  2   -67200.8    17313.3        0.0        0.0     0.0     0.0
"Line.5-7"  1   -14960.2    12010.9        0.0        0.0     0.0     0.0        0.0        0.0        0.0        0.0
"Line.5-7"  2    15137.8   -13628.9        0.0        0.0     0.0     0.0
"Line.6-7"  1    38322.4    -3265.8        0.0        0.0     0.0     0.0        0.0        0.0        0.0        0.0
"Line.6-7"  2   -37936.6     2729.5        0.0        0.0     0.0     0.0
"Line.6-8"  1    29947.6    -8194.4        0.0        0.0     0.0     0.0        0.0        0.0        0.0        0.0
"Line.6-8"  2   -29835.0     7670.2        0.0        0.0     0.0     0.0
"Line.12-14"  1     8316.8     2237.8        0.0        0.0     0.0     0.0        0.0        0.0        0.0        0.0
"Line.12-14"  2    -8235.1    -2067.9        0.0        0.0     0.0     0.0
"Line.12-15"  1    19777.6     6467.2        0.0        0.0     0.0     0.0        0.0        0.0        0.0        0.0
"Line.12-15"  2   -19521.1    -5962.0        0.0        0.0     0.0     0.0
"Line.12-16"  1    10068.1     3008.9        0.0        0.0     0.0     0.0        0.0        0.0        0.0        0.0
"Line.12-16"  2    -9974.7    -2812.6        0.0        0.0     0.0     0.0
"Line.14-15"  1     2035.4      468.0        0.0        0.0     0.0     0.0        0.0        0.0        0.0        0.0
"Line.14-15"  2    -2026.5     -460.0        0.0        0.0     0.0     0.0
"Line.16-17"  1     6474.9     1012.7        0.0        0.0     0.0     0.0        0.0        0.0        0.0        0.0
"Line.16-17"  2    -6454.2     -936.7        0.0        0.0     0.0     0.0
"Line.15-18"  1     7620.4     1223.9        0.0        0.0     0.0     0.0        0.0        0.0        0.0        0.0
"Line.15-18"  2    -7561.0    -1102.9        0.0        0.0     0.0     0.0
"Line.18-19"  1     4361.1      202.9        0.0        0.0     0.0     0.0        0.0        0.0        0.0        0.0
"Line.18-19"  2    -4349.6     -179.5        0.0        0.0     0.0     0.0
"Line.19-20"  1    -5150.1    -3220.3        0.0        0.0     0.0     0.0        0.0        0.0        0.0        0.0
"Line.19-20"  2     5162.0     3244.3        0.0        0.0     0.0     0.0
"Line.10-20"  1     7423.8     4082.3        0.0        0.0     0.0     0.0        0.0        0.0        0.0        0.0
"Line.10-20"  2    -7361.9    -3944.3        0.0        0.0     0.0     0.0
"Line.10-17"  1     2554.6     4886.8        0.0        0.0     0.0     0.0        0.0        0.0        0.0        0.0
"Line.10-17"  2    -2545.5    -4863.1        0.0        0.0     0.0     0.0
"Line.10-21"  1    14222.7    10478.1        0.0        0.0     0.0     0.0        0.0        0.0        0.0        0.0
"Line.10-21"  2   -14122.8   -10263.0        0.0        0.0     0.0     0.0
"Line.10-22"  1     6598.6     4920.5        0.0        0.0     0.0     0.0        0.0        0.0        0.0        0.0
"Line.10-22"  2    -6553.3    -4827.0        0.0        0.0     0.0     0.0
"Line.21-22"  1    -3376.6     -936.7        0.0        0.0     0.0     0.0        0.0        0.0        0.0        0.0
"Line.21-22"  2     3378.0      939.4        0.0        0.0     0.0     0.0
"Line.15-23"  1     5727.6     2698.2        0.0        0.0     0.0     0.0        0.0        0.0        0.0        0.0
"Line.15-23"  2    -5690.3    -2622.9        0.0        0.0     0.0     0.0
"Line.22-24"  1     3175.3     3887.6        0.0        0.0     0.0     0.0        0.0        0.0        0.0        0.0
"Line.22-24"  2    -3148.0    -3845.2        0.0        0.0     0.0     0.0
"Line.23-24"  1     2490.4     1023.0        0.0        0.0     0.0     0.0        0.0        0.0        0.0        0.0
"Line.23-24"  2    -2481.3    -1004.4        0.0        0.0     0.0     0.0
"Line.24-25"  1    -3070.4     2626.9        0.0        0.0     0.0     0.0        0.0        0.0        0.0        0.0
"Line.24-25"  2     3100.0    -2575.3        0.0        0.0     0.0     0.0
"Line.25-26"  1     3544.6     2366.6        0.0        0.0     0.0     0.0        0.0        0.0        0.0        0.0
"Line.25-26"  2    -3500.0    -2300.0        0.0        0.0     0.0     0.0
"Line.25-27"  1    -6644.6      208.6        0.0        0.0     0.0     0.0        0.0        0.0        0.0        0.0
"Line.25-27"  2     6691.2     -119.6        0.0        0.0     0.0     0.0
"Line.27-29"  1     6189.8     1668.3        0.0        0.0     0.0     0.0        0.0        0.0        0.0        0.0
"Line.27-29"  2    -6103.7    -1505.7        0.0        0.0     0.0     0.0
"Line.27-30"  1     7091.8     1662.2        0.0        0.0     0.0     0.0        0.0        0.0        0.0        0.0
"Line.27-30"  2    -6929.9    -1357.6        0.0        0.0     0.0     0.0
"Line.29-30"  1     3703.7      605.7        0.0        0.0     0.0     0.0        0.0        0.0        0.0        0.0
"Line.29-30"  2    -3670.2     -542.5        0.0        0.0     0.0     0.0
"Line.8-28"  1     -165.8     -452.1        0.0        0.0     0.0     0.0        0.0        0.0        0.0        0.0
"Line.8-28"  2      167.7    -3892.1        0.0        0.0     0.0     0.0
"Line.6-28"  1    20208.1     -218.9        0.0        0.0     0.0     0.0        0.0        0.0        0.0        0.0
"Line.6-28"  2   -20140.4     -862.9        0.0        0.0     0.0     0.0
"Transformer.6-9"  1    36598.2    -6804.7        0.0        0.0     0.0     0.0        0.0        0.0        0.0        0.0
"Transformer.6-9"  2   -36598.2     9506.9        0.0        0.0     0.0     0.0
"Transformer.9-11"  1       -1.3   -16620.8        0.0        0.0     0.0     0.0        0.0        0.0        0.0        0.0
"Transformer.9-11"  2        1.3    17142.9        0.0        0.0     0.0     0.0
"Transformer.9-10"  1    36599.5     7114.0        0.0        0.0     0.0     0.0        0.0        0.0        0.0        0.0
"Transformer.9-10"  2   -36599.5    -5724.6        0.0        0.0     0.0     0.0
"Transformer.4-12"  1    49360.7    14485.2        0.0        0.0     0.0     0.0        0.0        0.0        0.0        0.0
"Transformer.4-12"  2   -49360.7    -8729.7        0.0        0.0     0.0     0.0
"Transformer.12-13"  1       -1.2   -10483.9        0.0        0.0     0.0     0.0        0.0        0.0        0.0        0.0
"Transformer.12-13"  2        1.2    10621.5        0.0        0.0     0.0     0.0
"Transformer.28-27"  1    19972.7     4754.9        0.0        0.0     0.0     0.0        0.0        0.0        0.0        0.0
"Transformer.28-27"  2   -19972.7    -3211.0        0.0        0.0     0.0     0.0
"Capacitor.b10"  1        0.0   -20643.1        0.0        0.0     0.0     0.0        0.0        0.0        0.0        0.0
"Capacitor.b10"  2        0.0        0.0        0.0        0.0     0.0     0.0
"Capacitor.b24"  1        0.0    -4477.1        0.0        0.0     0.0     0.0        0.0        0.0        0.0        0.0
"Capacitor.b24"  2        0.0        0.0        0.0        0.0     0.0     0.0
"Load.b2"  1    21699.8    12699.9        0.0        0.0     0.0     0.0
"Load.b3"  1     2400.0     1200.0        0.0        0.0     0.0     0.0
"Load.b4"  1     7600.0     1599.9        0.0        0.0     0.0     0.0
"Load.b5"  1    94192.2    18998.9        0.0        0.0     0.0     0.0
"Load.b7"  1    22799.5    10899.5        0.0        0.0     0.0     0.0
"Load.b8"  1    30002.1    30000.7        0.0        0.0     0.0     0.0
"Load.b10"  1     5800.0     1999.9        0.0        0.0     0.0     0.0
"Load.b12"  1    11199.8     7499.7        0.0        0.0     0.0     0.0
"Load.b14"  1     6199.9     1599.9        0.0        0.0     0.0     0.0
"Load.b15"  1     8199.9     2499.8        0.0        0.0     0.0     0.0
"Load.b16"  1     3500.0     1799.9        0.0        0.0     0.0     0.0
"Load.b17"  1     9000.0     5799.7        0.0        0.0     0.0     0.0
"Load.b18"  1     3200.0      899.9        0.0        0.0     0.0     0.0
"Load.b19"  1     9499.9     3399.7        0.0        0.0     0.0     0.0
"Load.b20"  1     2200.0      699.9        0.0        0.0     0.0     0.0
"Load.b21"  1    17500.0    11199.5        0.0        0.0     0.0     0.0
"Load.b23"  1     3200.0     1599.9        0.0        0.0     0.0     0.0
"Load.b24"  1     8700.0     6699.7        0.0        0.0     0.0     0.0
"Load.b26"  1     3500.0     2299.9        0.0        0.0     0.0     0.0
"Load.b29"  1     2400.0      900.0        0.0        0.0     0.0     0.0
"Load.b30"  1    10600.1     1899.8        0.0        0.0     0.0     0.0
"Generator.b2"  1   -39999.6   -49999.5        0.0        0.0     0.0     0.0
"Generator.b5"  1       -0.8   -37281.6        0.0        0.0     0.0     0.0
"Generator.b8"  1       -1.9   -37220.9        0.0        0.0     0.0     0.0
"Generator.b11"  1       -1.3   -17142.9        0.0        0.0     0.0     0.0
"Generator.b13"  1       -1.2   -10621.5        0.0        0.0     0.0     0.0

Total Circuit Losses = 17604.7 +j 34838.5
