media/examples/OpenDSS/IEEE30/IEEE_30_VLN.txt

SYMMETRICAL COMPONENT VOLTAGES BY BUS (for 3-phase buses)

Bus   Mag:   V1 (kV)    p.u.     V2 (kV)   %V2/V1    V0 (kV)    %V0/V1

b1               80.78       1.06   5.255E-9   6.505E-9  5.255E-9  6.505E-9
b2               79.49      1.043   5.512E-9   6.934E-9  4.909E-9  6.175E-9
b3               77.75       1.02   5.542E-9   7.128E-9  4.716E-9  6.066E-9
b4               77.06      1.011   5.611E-9   7.281E-9  4.765E-9  6.184E-9
b5                  77       1.01   5.912E-9   7.679E-9  5.556E-9  7.217E-9
b6               76.98       1.01   5.713E-9   7.421E-9  4.953E-9  6.434E-9
b7               76.39      1.002   5.794E-9   7.585E-9  5.174E-9  6.773E-9
b8               76.96       1.01   5.754E-9   7.477E-9  5.065E-9  6.582E-9
b12              20.14      1.057   1.575E-9   7.818E-9  1.344E-9  6.673E-9
b14              19.86      1.042   1.574E-9   7.925E-9  1.335E-9  6.725E-9
b15              19.76      1.037   1.571E-9   7.953E-9  1.326E-9  6.713E-9
b16              19.87      1.043   1.574E-9   7.922E-9  1.338E-9  6.734E-9
b17              19.77      1.038    1.58E-9   7.991E-9  1.358E-9  6.871E-9
b18              19.56      1.027   1.575E-9    8.05E-9  1.336E-9   6.83E-9
b19               19.5      1.024   1.577E-9   8.084E-9  1.344E-9  6.892E-9
b20              19.58      1.028   1.579E-9   8.065E-9  1.352E-9  6.907E-9
b10              19.86      1.042   1.585E-9   7.981E-9  1.378E-9  6.936E-9
b21              19.63       1.03   1.578E-9   8.041E-9  1.354E-9  6.899E-9
b22              19.64      1.031   1.578E-9   8.037E-9  1.355E-9  6.899E-9
b23              19.55      1.026   1.569E-9   8.024E-9   1.32E-9  6.753E-9
b24              19.44       1.02   1.569E-9    8.07E-9  1.327E-9  6.827E-9
b25              19.39      1.018   1.553E-9   8.011E-9  1.316E-9   6.79E-9
b26              19.05          1   1.544E-9   8.101E-9  1.279E-9  6.712E-9
b27              19.52      1.024   1.547E-9   7.928E-9  1.327E-9  6.801E-9
b29              19.14      1.005   1.549E-9   8.092E-9  1.322E-9  6.908E-9
b30              18.92     0.9932   1.553E-9   8.207E-9  1.334E-9  7.048E-9
b28              76.71      1.007   5.744E-9   7.489E-9  4.983E-9  6.497E-9
b9              0.6057      1.049  4.704E-11   7.765E-9 4.089E-11  6.752E-9
b11              6.872      1.082   5.29E-10   7.699E-9 4.631E-10   6.74E-9
b13              6.802      1.071  5.299E-10    7.79E-9 4.539E-10  6.673E-9
