media/examples/OpenDSS/IEEE30/IEEE_30_VLN_Node.txt

LINE-GROUND and LINE-LINE VOLTAGES BY BUS & NODE

Bus  Node    VLN (kV)   Angle      pu     Base kV    Node-Node   VLL (kV)  Angle      pu

B1 ......... 1       80.782 /_    0.0      1.06   132.000        1-2     139.92 /_   30.0      1.06
   -         2       80.782 /_ -120.0      1.06   132.000        2-3     139.92 /_  -90.0      1.06
   -         3       80.782 /_  120.0      1.06   132.000        3-1     139.92 /_  150.0      1.06
B2 ......... 1       79.493 /_   -5.3    1.0431   132.000        1-2     137.69 /_   24.7    1.0431
   -         2       79.493 /_ -125.3    1.0431   132.000        2-3     137.69 /_  -95.3    1.0431
   -         3       79.493 /_  114.7    1.0431   132.000        3-1     137.69 /_  144.7    1.0431
B3 ......... 1       77.752 /_   -7.6    1.0202   132.000        1-2     134.67 /_   22.4    1.0202
   -         2       77.752 /_ -127.6    1.0202   132.000        2-3     134.67 /_  -97.6    1.0202
   -         3       77.752 /_  112.4    1.0202   132.000        3-1     134.67 /_  142.4    1.0202
B4 ......... 1        77.06 /_   -9.3    1.0111   132.000        1-2     133.47 /_   20.7    1.0111
   -         2        77.06 /_ -129.3    1.0111   132.000        2-3     133.47 /_  -99.3    1.0111
   -         3        77.06 /_  110.7    1.0111   132.000        3-1     133.47 /_  140.7    1.0111
B5 ......... 1       76.996 /_  -14.1    1.0103   132.000        1-2     133.36 /_   15.9    1.0103
   -         2       76.996 /_ -134.1    1.0103   132.000        2-3     133.36 /_ -104.1    1.0103
   -         3       76.996 /_  105.9    1.0103   132.000        3-1     133.36 /_  135.9    1.0103
B6 ......... 1       76.978 /_  -11.0    1.0101   132.000        1-2     133.33 /_   19.0    1.0101
   -         2       76.978 /_ -131.0    1.0101   132.000        2-3     133.33 /_ -101.0    1.0101
   -         3       76.978 /_  109.0    1.0101   132.000        3-1     133.33 /_  139.0    1.0101
B7 ......... 1       76.393 /_  -12.8    1.0024   132.000        1-2     132.32 /_   17.2    1.0024
   -         2       76.393 /_ -132.8    1.0024   132.000        2-3     132.32 /_ -102.8    1.0024
   -         3       76.393 /_  107.2    1.0024   132.000        3-1     132.32 /_  137.2    1.0024
B8 ......... 1       76.959 /_  -11.8    1.0098   132.000        1-2      133.3 /_   18.2    1.0098
   -         2       76.959 /_ -131.8    1.0098   132.000        2-3      133.3 /_ -101.8    1.0098
   -         3       76.959 /_  108.2    1.0098   132.000        3-1      133.3 /_  138.2    1.0098
B12 ........ 1       20.142 /_  -15.6    1.0572    33.000        1-2     34.887 /_   14.4    1.0572
   -         2       20.142 /_ -135.6    1.0572    33.000        2-3     34.887 /_ -105.6    1.0572
   -         3       20.142 /_  104.4    1.0572    33.000        3-1     34.887 /_  134.4    1.0572
B14 ........ 1       19.857 /_  -16.6    1.0422    33.000        1-2     34.393 /_   13.4    1.0422
   -         2       19.857 /_ -136.6    1.0422    33.000        2-3     34.393 /_ -106.6    1.0422
   -         3       19.857 /_  103.4    1.0422    33.000        3-1     34.393 /_  133.4    1.0422
B15 ........ 1       19.758 /_  -16.8     1.037    33.000        1-2     34.221 /_   13.2     1.037
   -         2       19.758 /_ -136.8     1.037    33.000        2-3     34.221 /_ -106.8     1.037
   -         3       19.758 /_  103.2     1.037    33.000        3-1     34.221 /_  133.2     1.037
B16 ........ 1       19.865 /_  -16.5    1.0426    33.000        1-2     34.407 /_   13.5    1.0426
   -         2       19.865 /_ -136.5    1.0426    33.000        2-3     34.407 /_ -106.5    1.0426
   -         3       19.865 /_  103.5    1.0426    33.000        3-1     34.407 /_  133.5    1.0426
B17 ........ 1       19.769 /_  -17.2    1.0376    33.000        1-2      34.24 /_   12.8    1.0376
   -         2       19.769 /_ -137.2    1.0376    33.000        2-3      34.24 /_ -107.2    1.0376
   -         3       19.769 /_  102.8    1.0376    33.000        3-1      34.24 /_  132.8    1.0376
B18 ........ 1        19.56 /_  -17.6    1.0267    33.000        1-2      33.88 /_   12.4    1.0267
   -         2        19.56 /_ -137.6    1.0267    33.000        2-3      33.88 /_ -107.6    1.0267
   -         3        19.56 /_  102.4    1.0267    33.000        3-1      33.88 /_  132.4    1.0267
B19 ........ 1       19.504 /_  -17.9    1.0237    33.000        1-2     33.782 /_   12.1    1.0237
   -         2       19.504 /_ -137.9    1.0237    33.000        2-3     33.782 /_ -107.9    1.0237
   -         3       19.504 /_  102.1    1.0237    33.000        3-1     33.782 /_  132.1    1.0237
B20 ........ 1       19.578 /_  -17.8    1.0276    33.000        1-2     33.909 /_   12.2    1.0276
   -         2       19.578 /_ -137.8    1.0276    33.000        2-3     33.909 /_ -107.8    1.0276
   -         3       19.578 /_  102.2    1.0276    33.000        3-1     33.909 /_  132.2    1.0276
B10 ........ 1       19.859 /_  -17.1    1.0423    33.000        1-2     34.397 /_   12.9    1.0423
   -         2       19.859 /_ -137.1    1.0423    33.000        2-3     34.397 /_ -107.1    1.0423
   -         3       19.859 /_  102.9    1.0423    33.000        3-1     34.397 /_  132.9    1.0423
B21 ........ 1       19.626 /_  -17.5    1.0301    33.000        1-2     33.993 /_   12.5    1.0301
   -         2       19.626 /_ -137.5    1.0301    33.000        2-3     33.993 /_ -107.5    1.0301
   -         3       19.626 /_  102.5    1.0301    33.000        3-1     33.993 /_  132.5    1.0301
B22 ........ 1       19.637 /_  -17.5    1.0307    33.000        1-2     34.013 /_   12.5    1.0307
   -         2       19.637 /_ -137.5    1.0307    33.000        2-3     34.013 /_ -107.5    1.0307
   -         3       19.637 /_  102.5    1.0307    33.000        3-1     34.013 /_  132.5    1.0307
B23 ........ 1       19.553 /_  -17.2    1.0263    33.000        1-2     33.867 /_   12.8    1.0263
   -         2       19.553 /_ -137.2    1.0263    33.000        2-3     33.867 /_ -107.2    1.0263
   -         3       19.553 /_  102.8    1.0263    33.000        3-1     33.867 /_  132.8    1.0263
B24 ........ 1       19.441 /_  -17.5    1.0204    33.000        1-2     33.673 /_   12.5    1.0204
   -         2       19.441 /_ -137.5    1.0204    33.000        2-3     33.673 /_ -107.5    1.0204
   -         3       19.441 /_  102.5    1.0204    33.000        3-1     33.673 /_  132.5    1.0204
B25 ........ 1        19.39 /_  -16.7    1.0177    33.000        1-2     33.584 /_   13.3    1.0177
   -         2        19.39 /_ -136.7    1.0177    33.000        2-3     33.584 /_ -106.7    1.0177
   -         3        19.39 /_  103.3    1.0177    33.000        3-1     33.584 /_  133.3    1.0177
B26 ........ 1       19.053 /_  -17.1         1    33.000        1-2     33.001 /_   12.9         1
   -         2       19.053 /_ -137.1         1    33.000        2-3     33.001 /_ -107.1         1
   -         3       19.053 /_  102.9         1    33.000        3-1     33.001 /_  132.9         1
B27 ........ 1       19.519 /_  -15.9    1.0245    33.000        1-2     33.808 /_   14.1    1.0245
   -         2       19.519 /_ -135.9    1.0245    33.000        2-3     33.808 /_ -105.9    1.0245
   -         3       19.519 /_  104.1    1.0245    33.000        3-1     33.808 /_  134.1    1.0245
B29 ........ 1       19.142 /_  -17.2    1.0047    33.000        1-2     33.155 /_   12.8    1.0047
   -         2       19.142 /_ -137.2    1.0047    33.000        2-3     33.155 /_ -107.2    1.0047
   -         3       19.142 /_  102.8    1.0047    33.000        3-1     33.155 /_  132.8    1.0047
B30 ........ 1       18.923 /_  -18.0   0.99322    33.000        1-2     32.776 /_   12.0   0.99322
   -         2       18.923 /_ -138.0   0.99322    33.000        2-3     32.776 /_ -108.0   0.99322
   -         3       18.923 /_  102.0   0.99322    33.000        3-1     32.776 /_  132.0   0.99322
B28 ........ 1       76.706 /_  -11.7    1.0065   132.000        1-2     132.86 /_   18.3    1.0065
   -         2       76.706 /_ -131.7    1.0065   132.000        2-3     132.86 /_ -101.7    1.0065
   -         3       76.706 /_  108.3    1.0065   132.000        3-1     132.86 /_  138.3    1.0065
B9 ......... 1       0.6057 /_  -15.0    1.0491     1.000        1-2     1.0491 /_   15.0    1.0491
   -         2       0.6057 /_ -135.0    1.0491     1.000        2-3     1.0491 /_ -105.0    1.0491
   -         3       0.6057 /_  105.0    1.0491     1.000        3-1     1.0491 /_  135.0    1.0491
B11 ........ 1       6.8719 /_  -15.0     1.082    11.000        1-2     11.903 /_   15.0     1.082
   -         2       6.8719 /_ -135.0     1.082    11.000        2-3     11.903 /_ -105.0     1.082
   -         3       6.8719 /_  105.0     1.082    11.000        3-1     11.903 /_  135.0     1.082
B13 ........ 1       6.8021 /_  -15.6    1.0711    11.000        1-2     11.782 /_   14.4    1.0711
   -         2       6.8021 /_ -135.6    1.0711    11.000        2-3     11.782 /_ -105.6    1.0711
   -         3       6.8021 /_  104.4    1.0711    11.000        3-1     11.782 /_  134.4    1.0711
